-------------------------------------------------------
          Amber 18 PMEMD                              2018
          -------------------------------------------------------

  [-O]verwriting output

File Assignments:

 Here is the input file:

stage 4 equilibration and production
&cntrl
imin=0, irest=1, ntx=5,
nstlim=2500000, dt=0.002,
ntc=2, ntf=2,
ntt=1, tautp=1.0,
temp0=300.0,
ntpr=3500, ntwx=3500,
ntb=2, ntp=1, pres0=1.0,
cut=10, iwrap=1,
/

Note: ig = -1. Setting random seed to   304247 based on wallclock time in
      microseconds and disabling the synchronization of random numbers
      between tasks to improve performance.

--------------------------------------------------------------------------------
   1.  RESOURCE   USE:
--------------------------------------------------------------------------------

 getting box info from netcdf restart file
 NATOM  =   38590 NTYPES =      18 NBONH =   36362 MBONA  =    2251
 NTHETH =    4965 MTHETA =    3061 NPHIH =   10114 MPHIA  =    9658
 NHPARM =       0 NPARM  =       0 NNB   =   69793 NRES   =   11698
 NBONA  =    2251 NTHETA =    3061 NPHIA =    9658 NUMBND =      65
 NUMANG =     148 NPTRA  =     191 NATYP =      37 NPHB   =       1
 IFBOX  =       1 NMXRS  =      24 IFCAP =       0 NEXTRA =       0
 NCOPY  =       0

     BOX TYPE: RECTILINEAR

--------------------------------------------------------------------------------
   2.  CONTROL  DATA  FOR  THE  RUN
--------------------------------------------------------------------------------

default_name

General flags:
     imin    =       0, nmropt  =       0

Nature and format of input:
     ntx     =       5, irest   =       1, ntrx    =       1

Nature and format of output:
     ntxo    =       2, ntpr    =    3500, ntrx    =       1, ntwr    = 2500000
     iwrap   =       1, ntwx    =    3500, ntwv    =       0, ntwe    =       0
     ioutfm  =       1, ntwprt  =       0, idecomp =       0, rbornstat=      0

Potential function:
     ntf     =       2, ntb     =       2, igb     =       0, nsnb    =      25
     ipol    =       0, gbsa    =       0, iesp    =       0
     dielc   =   1.00000, cut     =  10.00000, intdiel =   1.00000

Frozen or restrained atoms:
     ibelly  =       0, ntr     =       0

Molecular dynamics:
     nstlim  =   2500000, nscm    =      1000, nrespa  =         1
     t       =   0.00000, dt      =   0.00200, vlimit  =  -1.00000

Berendsen (weak-coupling) temperature regulation:
     temp0   = 300.00000, tempi   =   0.00000, tautp   =   1.00000

Pressure regulation:
     ntp     =       1
     pres0   =   1.00000, comp    =  44.60000, taup    =   1.00000

SHAKE:
     ntc     =       2, jfastw  =       0
     tol     =   0.00001

Ewald parameters:
     verbose =       0, ew_type =       0, nbflag  =       1, use_pme =       1
     vdwmeth =       1, eedmeth =       1, netfrc  =       1
     Box X =   79.659   Box Y =   81.417   Box Z =   78.994
     Alpha =   90.000   Beta  =   90.000   Gamma =   90.000
     NFFT1 =   80       NFFT2 =   84       NFFT3 =   80
     Cutoff=   10.000   Tol   =0.100E-04
     Ewald Coefficient =  0.27511
     Interpolation order =    4

--------------------------------------------------------------------------------
   3.  ATOMIC COORDINATES AND VELOCITIES
--------------------------------------------------------------------------------

default_name
 begin time read from input coords =  4000.000 ps

 Number of triangulated 3-point waters found:    11386

     Sum of charges from parm topology file =  -0.00000018
     Forcing neutrality...

--------------------------------------------------------------------------------
   4.  RESULTS
 NSTEP =     3500   TIME(PS) =    4007.000  TEMP(K) =   297.00  PRESS =  -364.3
 Etot   =    -93472.7696  EKtot   =     23432.3242  EPtot      =   -116905.0938
 BOND   =       937.0338  ANGLE   =      2426.4003  DIHED      =      3607.8012
 1-4 NB =      1031.1410  1-4 EEL =      8688.9091  VDWAALS    =     13989.2950
 EELEC  =   -147585.6742  EHBOND  =         0.0000  RESTRAINT  =         0.0000
 EKCMT  =     10003.8087  VIRIAL  =     13562.7798  VOLUME     =    452492.7914
                                                    Density    =         0.8701
 ------------------------------------------------------------------------------

      A V E R A G E S   O V E R     714 S T E P S

 NSTEP =  2500000   TIME(PS) =    9000.000  TEMP(K) =   299.96  PRESS =    -2.7
 Etot   =    -95283.2113  EKtot   =     23666.1504  EPtot      =   -118949.3617
 BOND   =       840.1575  ANGLE   =      2255.4153  DIHED      =      3537.0466
 1-4 NB =      1031.8222  1-4 EEL =      8760.8410  VDWAALS    =     13546.6969
 EELEC  =   -148921.3413  EHBOND  =         0.0000  RESTRAINT  =         0.0000
 EKCMT  =     10279.2143  VIRIAL  =     10303.0382  VOLUME     =    386237.9169
                                                    Density    =         1.0194
 ------------------------------------------------------------------------------

      R M S  F L U C T U A T I O N S

 NSTEP =  2500000   TIME(PS) =    9000.000  TEMP(K) =     1.16  PRESS =   111.8
 Etot   =        96.5657  EKtot   =        91.7681  EPtot      =       136.5570
 BOND   =        23.7386  ANGLE   =        35.5053  DIHED      =        21.5344
 1-4 NB =        13.3363  1-4 EEL =        44.7995  VDWAALS    =       145.9061
 EELEC  =       211.1856  EHBOND  =         0.0000  RESTRAINT  =         0.0000
 EKCMT  =        70.1560  VIRIAL  =       939.4699  VOLUME     =      2649.1499
                                                    Density    =         0.0061
 ------------------------------------------------------------------------------
