-------------------------------------------------------
          Amber 18 PMEMD                              2018
          -------------------------------------------------------

  [-O]verwriting output

File Assignments:

 Here is the input file:

stage 1 heating 0 to 10K in NVT
&cntrl
imin=0, irest=0, ntx=1,
nstlim=500000, dt=0.002,
ntc=2, ntf=2,
ntt=1, tautp=1.0,
tempi=0.0, temp0=10.0,
ntpr=25000, ntwx=25000,
ntb=1,
cut=10, iwrap=1,
ntr=1,
restraint_wt = 10,
restraintmask = '@CA,C,O,N'
/

Note: ig = -1. Setting random seed to   311336 based on wallclock time in
      microseconds.

--------------------------------------------------------------------------------
   1.  RESOURCE   USE:
--------------------------------------------------------------------------------

 getting box info from netcdf restart file
 NATOM  =   38590 NTYPES =      18 NBONH =   36362 MBONA  =    2251
 NTHETH =    4965 MTHETA =    3061 NPHIH =   10114 MPHIA  =    9658
 NHPARM =       0 NPARM  =       0 NNB   =   69793 NRES   =   11698
 NBONA  =    2251 NTHETA =    3061 NPHIA =    9658 NUMBND =      65
 NUMANG =     148 NPTRA  =     191 NATYP =      37 NPHB   =       1
 IFBOX  =       1 NMXRS  =      24 IFCAP =       0 NEXTRA =       0
 NCOPY  =       0

     BOX TYPE: RECTILINEAR

--------------------------------------------------------------------------------
   2.  CONTROL  DATA  FOR  THE  RUN
--------------------------------------------------------------------------------

default_name

General flags:
     imin    =       0, nmropt  =       0

Nature and format of input:
     ntx     =       1, irest   =       0, ntrx    =       1

Nature and format of output:
     ntxo    =       2, ntpr    =   25000, ntrx    =       1, ntwr    =  500000
     iwrap   =       1, ntwx    =   25000, ntwv    =       0, ntwe    =       0
     ioutfm  =       1, ntwprt  =       0, idecomp =       0, rbornstat=      0

Potential function:
     ntf     =       2, ntb     =       1, igb     =       0, nsnb    =      25
     ipol    =       0, gbsa    =       0, iesp    =       0
     dielc   =   1.00000, cut     =  10.00000, intdiel =   1.00000

Frozen or restrained atoms:
     ibelly  =       0, ntr     =       1
     restraint_wt =  10.00000

Molecular dynamics:
     nstlim  =    500000, nscm    =         0, nrespa  =         1
     t       =   0.00000, dt      =   0.00200, vlimit  =  20.00000

Berendsen (weak-coupling) temperature regulation:
     temp0   =  10.00000, tempi   =   0.00000, tautp   =   1.00000

SHAKE:
     ntc     =       2, jfastw  =       0
     tol     =   0.00001

Ewald parameters:
     verbose =       0, ew_type =       0, nbflag  =       1, use_pme =       1
     vdwmeth =       1, eedmeth =       1, netfrc  =       1
     Box X =   77.725   Box Y =   79.440   Box Z =   77.076
     Alpha =   90.000   Beta  =   90.000   Gamma =   90.000
     NFFT1 =   80       NFFT2 =   80       NFFT3 =   80
     Cutoff=   10.000   Tol   =0.100E-04
     Ewald Coefficient =  0.27511
     Interpolation order =    4

    LOADING THE CONSTRAINED ATOMS AS GROUPS

   5.  REFERENCE ATOM COORDINATES

  default_name
     Mask @CA,C,O,N; matches 12528 atoms

--------------------------------------------------------------------------------
   3.  ATOMIC COORDINATES AND VELOCITIES
--------------------------------------------------------------------------------

default_name
 begin time read from input coords =     0.000 ps

 Number of triangulated 3-point waters found:    11386

     Sum of charges from parm topology file =  -0.00000018
     Forcing neutrality...

--------------------------------------------------------------------------------
   4.  RESULTS
 NSTEP =        0   TIME(PS) =       0.000  TEMP(K) =     0.00  PRESS =     0.0
 Etot   =   -168657.0155  EKtot   =         0.0000  EPtot      =   -168657.0155
 BOND   =       161.3722  ANGLE   =       639.4352  DIHED      =      3153.4837
 1-4 NB =       901.8357  1-4 EEL =      8820.3130  VDWAALS    =     31723.5914
 EELEC  =   -214057.0467  EHBOND  =         0.0000  RESTRAINT  =         0.0000
 Ewald error estimate:   0.8366E-04
 ------------------------------------------------------------------------------

      A V E R A G E S   O V E R      20 S T E P S

 NSTEP =   500000   TIME(PS) =    1000.000  TEMP(K) =    10.00  PRESS =     0.0
 Etot   =   -143167.1046  EKtot   =       789.2384  EPtot      =   -143956.3430
 BOND   =       179.1449  ANGLE   =       681.4809  DIHED      =      3165.2286
 1-4 NB =       909.0284  1-4 EEL =      8819.1623  VDWAALS    =     29421.8286
 EELEC  =   -187462.0977  EHBOND  =         0.0000  RESTRAINT  =       329.8809
 EAMBER (non-restraint)  =   -144286.2239
 Ewald error estimate:   0.1287E-03
 ------------------------------------------------------------------------------

      R M S  F L U C T U A T I O N S

 NSTEP =   500000   TIME(PS) =    1000.000  TEMP(K) =     0.06  PRESS =     0.0
 Etot   =         0.8597  EKtot   =         4.7736  EPtot      =         4.7779
 BOND   =         3.5524  ANGLE   =         9.8952  DIHED      =         2.1119
 1-4 NB =         1.7587  1-4 EEL =         4.3669  VDWAALS    =        15.1542
 EELEC  =        16.5840  EHBOND  =         0.0000  RESTRAINT  =         4.8719
 EAMBER (non-restraint)  =        -0.0940
 Ewald error estimate:   0.1782E-04
 ------------------------------------------------------------------------------
