-------------------------------------------------------
          Amber 18 PMEMD                              2018
          -------------------------------------------------------

  [-O]verwriting output

File Assignments:

 Here is the input file:

stage 2 heating 0 to 10K in NPT
&cntrl
imin=0, irest=1, ntx=5,
nstlim=500000, dt=0.002,
ntc=2, ntf=2,
ntt=1, tautp=1.0,
temp0=10.0,
ntpr=25000, ntwx=25000,
ntb=2, ntp=1, pres0=1.0,
cut=10, iwrap=1,
ntr=1,
restraint_wt = 10,
restraintmask = '@CA,C,O,N'
/

Note: ig = -1. Setting random seed to   361188 based on wallclock time in
      microseconds.

--------------------------------------------------------------------------------
   1.  RESOURCE   USE:
--------------------------------------------------------------------------------

 getting box info from netcdf restart file
 NATOM  =   38590 NTYPES =      18 NBONH =   36362 MBONA  =    2251
 NTHETH =    4965 MTHETA =    3061 NPHIH =   10114 MPHIA  =    9658
 NHPARM =       0 NPARM  =       0 NNB   =   69793 NRES   =   11698
 NBONA  =    2251 NTHETA =    3061 NPHIA =    9658 NUMBND =      65
 NUMANG =     148 NPTRA  =     191 NATYP =      37 NPHB   =       1
 IFBOX  =       1 NMXRS  =      24 IFCAP =       0 NEXTRA =       0
 NCOPY  =       0

     BOX TYPE: RECTILINEAR

--------------------------------------------------------------------------------
   2.  CONTROL  DATA  FOR  THE  RUN
--------------------------------------------------------------------------------

default_name

General flags:
     imin    =       0, nmropt  =       0

Nature and format of input:
     ntx     =       5, irest   =       1, ntrx    =       1

Nature and format of output:
     ntxo    =       2, ntpr    =   25000, ntrx    =       1, ntwr    =  500000
     iwrap   =       1, ntwx    =   25000, ntwv    =       0, ntwe    =       0
     ioutfm  =       1, ntwprt  =       0, idecomp =       0, rbornstat=      0

Potential function:
     ntf     =       2, ntb     =       2, igb     =       0, nsnb    =      25
     ipol    =       0, gbsa    =       0, iesp    =       0
     dielc   =   1.00000, cut     =  10.00000, intdiel =   1.00000

Frozen or restrained atoms:
     ibelly  =       0, ntr     =       1
     restraint_wt =  10.00000

Molecular dynamics:
     nstlim  =    500000, nscm    =         0, nrespa  =         1
     t       =   0.00000, dt      =   0.00200, vlimit  =  20.00000

Berendsen (weak-coupling) temperature regulation:
     temp0   =  10.00000, tempi   =   0.00000, tautp   =   1.00000

Pressure regulation:
     ntp     =       1
     pres0   =   1.00000, comp    =  44.60000, taup    =   1.00000

SHAKE:
     ntc     =       2, jfastw  =       0
     tol     =   0.00001

Ewald parameters:
     verbose =       0, ew_type =       0, nbflag  =       1, use_pme =       1
     vdwmeth =       1, eedmeth =       1, netfrc  =       1
     Box X =   77.725   Box Y =   79.440   Box Z =   77.076
     Alpha =   90.000   Beta  =   90.000   Gamma =   90.000
     NFFT1 =   80       NFFT2 =   80       NFFT3 =   80
     Cutoff=   10.000   Tol   =0.100E-04
     Ewald Coefficient =  0.27511
     Interpolation order =    4

    LOADING THE CONSTRAINED ATOMS AS GROUPS

   5.  REFERENCE ATOM COORDINATES

  default_name
     Mask @CA,C,O,N; matches 12528 atoms

--------------------------------------------------------------------------------
   3.  ATOMIC COORDINATES AND VELOCITIES
--------------------------------------------------------------------------------

default_name
 begin time read from input coords =  1000.000 ps

 Number of triangulated 3-point waters found:    11386

     Sum of charges from parm topology file =  -0.00000018
     Forcing neutrality...

--------------------------------------------------------------------------------
   4.  RESULTS
 NSTEP =    25000   TIME(PS) =    1050.000  TEMP(K) =    10.03  PRESS =    15.3
 Etot   =   -143386.4617  EKtot   =       791.3788  EPtot      =   -144177.8406
 BOND   =       184.8265  ANGLE   =       690.8140  DIHED      =      3157.6937
 1-4 NB =       909.0094  1-4 EEL =      8816.8922  VDWAALS    =     26937.2133
 EELEC  =   -185114.2278  EHBOND  =         0.0000  RESTRAINT  =       239.9379
 EAMBER (non-restraint)  =   -144417.7785
 EKCMT  =       331.6596  VIRIAL  =       172.5548  VOLUME     =    480143.9613
                                                    Density    =         0.8200
 Ewald error estimate:   0.1070E-03
 ------------------------------------------------------------------------------

      A V E R A G E S   O V E R      20 S T E P S

 NSTEP =   500000   TIME(PS) =    2000.000  TEMP(K) =    10.00  PRESS =     2.9
 Etot   =   -143387.1014  EKtot   =       789.2993  EPtot      =   -144176.4007
 BOND   =       183.3237  ANGLE   =       692.2637  DIHED      =      3163.0913
 1-4 NB =       905.7854  1-4 EEL =      8814.6675  VDWAALS    =     26926.9761
 EELEC  =   -185111.1370  EHBOND  =         0.0000  RESTRAINT  =       248.6287
 EAMBER (non-restraint)  =   -144425.0293
 EKCMT  =       341.7720  VIRIAL  =       311.5755  VOLUME     =    480139.3073
                                                    Density    =         0.8200
 Ewald error estimate:   0.1044E-03
 ------------------------------------------------------------------------------

      R M S  F L U C T U A T I O N S

 NSTEP =   500000   TIME(PS) =    2000.000  TEMP(K) =     0.03  PRESS =     7.4
 Etot   =         0.3597  EKtot   =         2.3414  EPtot      =         2.3557
 BOND   =         3.2175  ANGLE   =         2.4463  DIHED      =         2.7408
 1-4 NB =         2.4068  1-4 EEL =         6.3585  VDWAALS    =        18.7738
 EELEC  =        21.0293  EHBOND  =         0.0000  RESTRAINT  =         3.0703
 EAMBER (non-restraint)  =        -0.7146
 EKCMT  =         3.2938  VIRIAL  =        77.9779  VOLUME     =         5.7573
                                                    Density    =         0.0000
 Ewald error estimate:   0.2066E-04
 ------------------------------------------------------------------------------
