-------------------------------------------------------
          Amber 18 PMEMD                              2018
          -------------------------------------------------------

  [-O]verwriting output

File Assignments:

 Here is the input file:

stage 3 heating from 10 to 300 K in NPT
&cntrl
imin=0, irest=1, ntx=5,
nstlim=1000000, dt=0.002,
ntc=2, ntf=2,
ntt=1, tautp=1.0,
tempi=10.0, temp0=300.0,
ntpr=25000, ntwx=25000,
ntb=2, ntp=1, pres0=1.0,
cut=10, iwrap=1,
ntr=1,
restraint_wt = 10,
restraintmask = '@CA,C,O,N'
/

Note: ig = -1. Setting random seed to   839448 based on wallclock time in
      microseconds and disabling the synchronization of random numbers
      between tasks to improve performance.

--------------------------------------------------------------------------------
   1.  RESOURCE   USE:
--------------------------------------------------------------------------------

 getting box info from netcdf restart file
 NATOM  =   38590 NTYPES =      18 NBONH =   36362 MBONA  =    2251
 NTHETH =    4965 MTHETA =    3061 NPHIH =   10114 MPHIA  =    9658
 NHPARM =       0 NPARM  =       0 NNB   =   69793 NRES   =   11698
 NBONA  =    2251 NTHETA =    3061 NPHIA =    9658 NUMBND =      65
 NUMANG =     148 NPTRA  =     191 NATYP =      37 NPHB   =       1
 IFBOX  =       1 NMXRS  =      24 IFCAP =       0 NEXTRA =       0
 NCOPY  =       0

     BOX TYPE: RECTILINEAR

--------------------------------------------------------------------------------
   2.  CONTROL  DATA  FOR  THE  RUN
--------------------------------------------------------------------------------

default_name

General flags:
     imin    =       0, nmropt  =       0

Nature and format of input:
     ntx     =       5, irest   =       1, ntrx    =       1

Nature and format of output:
     ntxo    =       2, ntpr    =   25000, ntrx    =       1, ntwr    = 1000000
     iwrap   =       1, ntwx    =   25000, ntwv    =       0, ntwe    =       0
     ioutfm  =       1, ntwprt  =       0, idecomp =       0, rbornstat=      0

Potential function:
     ntf     =       2, ntb     =       2, igb     =       0, nsnb    =      25
     ipol    =       0, gbsa    =       0, iesp    =       0
     dielc   =   1.00000, cut     =  10.00000, intdiel =   1.00000

Frozen or restrained atoms:
     ibelly  =       0, ntr     =       1
     restraint_wt =  10.00000

Molecular dynamics:
     nstlim  =   1000000, nscm    =         0, nrespa  =         1
     t       =   0.00000, dt      =   0.00200, vlimit  =  20.00000

Berendsen (weak-coupling) temperature regulation:
     temp0   = 300.00000, tempi   =  10.00000, tautp   =   1.00000

Pressure regulation:
     ntp     =       1
     pres0   =   1.00000, comp    =  44.60000, taup    =   1.00000

SHAKE:
     ntc     =       2, jfastw  =       0
     tol     =   0.00001

Ewald parameters:
     verbose =       0, ew_type =       0, nbflag  =       1, use_pme =       1
     vdwmeth =       1, eedmeth =       1, netfrc  =       1
     Box X =   77.955   Box Y =   79.675   Box Z =   77.305
     Alpha =   90.000   Beta  =   90.000   Gamma =   90.000
     NFFT1 =   80       NFFT2 =   80       NFFT3 =   80
     Cutoff=   10.000   Tol   =0.100E-04
     Ewald Coefficient =  0.27511
     Interpolation order =    4

    LOADING THE CONSTRAINED ATOMS AS GROUPS

   5.  REFERENCE ATOM COORDINATES

  default_name
     Mask @CA,C,O,N; matches 12528 atoms

--------------------------------------------------------------------------------
   3.  ATOMIC COORDINATES AND VELOCITIES
--------------------------------------------------------------------------------

default_name
 begin time read from input coords =  2000.000 ps

 Number of triangulated 3-point waters found:    11386

     Sum of charges from parm topology file =  -0.00000018
     Forcing neutrality...

--------------------------------------------------------------------------------
   4.  RESULTS
 NSTEP =    25000   TIME(PS) =    2050.000  TEMP(K) =   300.02  PRESS =   -51.7
 Etot   =    -94360.9634  EKtot   =     23671.4823  EPtot      =   -118032.4457
 BOND   =       879.4563  ANGLE   =      2270.1504  DIHED      =      3558.4388
 1-4 NB =      1001.3250  1-4 EEL =      8732.3307  VDWAALS    =     19897.8419
 EELEC  =   -160142.3753  EHBOND  =         0.0000  RESTRAINT  =      5770.3865
 EAMBER (non-restraint)  =   -123802.8322
 EKCMT  =     10230.6412  VIRIAL  =     10801.3769  VOLUME     =    511546.9120
                                                    Density    =         0.7696
 Ewald error estimate:   0.5974E-04
 ------------------------------------------------------------------------------

      A V E R A G E S   O V E R      40 S T E P S

 NSTEP =  1000000   TIME(PS) =    4000.000  TEMP(K) =   299.66  PRESS =    -9.1
 Etot   =    -94208.5663  EKtot   =     23643.3659  EPtot      =   -117851.9322
 BOND   =       849.5545  ANGLE   =      2243.7627  DIHED      =      3562.4130
 1-4 NB =      1007.8919  1-4 EEL =      8755.4019  VDWAALS    =     19891.4916
 EELEC  =   -160105.6261  EHBOND  =         0.0000  RESTRAINT  =      5943.1783
 EAMBER (non-restraint)  =   -123795.1105
 EKCMT  =     10271.7080  VIRIAL  =     10371.8350  VOLUME     =    511994.9142
                                                    Density    =         0.7690
 Ewald error estimate:   0.3671E-04
 ------------------------------------------------------------------------------

      R M S  F L U C T U A T I O N S

 NSTEP =  1000000   TIME(PS) =    4000.000  TEMP(K) =     1.16  PRESS =    66.5
 Etot   =        47.9189  EKtot   =        91.4548  EPtot      =       106.6592
 BOND   =        22.3002  ANGLE   =        29.9392  DIHED      =        19.4347
 1-4 NB =        11.5468  1-4 EEL =        33.3621  VDWAALS    =       100.2830
 EELEC  =       151.5450  EHBOND  =         0.0000  RESTRAINT  =        51.3110
 EAMBER (non-restraint)  =        55.3483
 EKCMT  =        69.2594  VIRIAL  =       743.0940  VOLUME     =       155.4709
                                                    Density    =         0.0002
 Ewald error estimate:   0.2451E-04
 ------------------------------------------------------------------------------
